OPT_V10/Two_days_first_run/powerflow_results_t35.txt
Pandapower Network Debug Info
==================================================

BUS:
       vm_pu  va_degree      p_mw    q_mvar
0   0.998378   0.402294 -0.001902  0.001173
1   0.997654   0.660293 -0.002222  0.002168
2   0.996086   0.852281 -0.000715  0.003124
3   0.996338   0.582479 -0.000384  0.004386
4   0.993860   0.440867  0.000204  0.005110
5   0.996835   0.373973 -0.000059  0.006043
6   0.997546   0.483546 -0.001568  0.000962
7   0.999595   0.120133 -0.001215  0.002026
8   0.999006   0.093197 -0.001549  0.002787
9   0.999873   0.003178  0.007205  0.008109
10  0.999878   0.003128  0.006791  0.009822
11  0.999892   0.002931  0.006162  0.012812
12  0.999841   0.004987  0.005559  0.005745
13  0.999816   0.005386  0.007391  0.010341
14  0.999824   0.005257  0.011547  0.013954
15  0.999953   0.001740  0.000000  0.000000
16  0.999953   0.001747  0.000000  0.000000
17  0.999844   0.004959  0.000000  0.000000
18  0.999844   0.004969  0.000000  0.000000
19  1.000000   0.000000 -0.015073 -0.046684
20  1.000000   0.000006  0.000000  0.000000
21  1.000000   0.000000 -0.020429 -0.052045
22  1.000000   0.000007  0.000000  0.000000
--------------------------------------------------

LINE:
    p_from_mw  q_from_mvar   p_to_mw  q_to_mvar         pl_mw       ql_mvar  i_from_ka   i_to_ka      i_ka  vm_from_pu  va_from_degree  vm_to_pu  va_to_degree  loading_percent
0    0.015063     0.042684 -0.015061  -0.042682  2.004005e-06  1.562556e-06   0.001742  0.001742  0.001742    1.000000        0.000006  0.999953      0.001740         0.757479
1    0.020419     0.048045 -0.020412  -0.048039  7.330569e-06  5.715765e-06   0.002009  0.002009  0.002009    1.000000        0.000007  0.999844      0.004959         0.873622
2    0.020160     0.030745 -0.020158  -0.030743  1.869944e-06  1.458026e-06   0.001415  0.001415  0.001415    0.999953        0.001740  0.999892      0.002931         0.615287
3    0.005559     0.005745 -0.005559  -0.005745  2.210956e-08  1.723919e-08   0.000308  0.000308  0.000308    0.999844        0.004959  0.999841      0.004987         0.133809
4    0.018938     0.024295 -0.018938  -0.024295  5.190217e-07  4.046897e-07   0.001186  0.001186  0.001186    0.999844        0.004959  0.999824      0.005257         0.515586
5   -0.005109     0.010938  0.005178  -0.010885  6.817180e-05  5.315467e-05   0.017426  0.017426  0.017426    0.999953        0.001747  0.998378      0.402294         7.576361
6   -0.001583     0.007039  0.001624  -0.007008  4.039967e-05  3.150029e-05   0.010416  0.010416  0.010416    0.999844        0.004969  0.996835      0.373973         4.528566
7   -0.001211     0.002029  0.001215  -0.002026  3.773896e-06  2.942569e-06   0.003411  0.003411  0.003411    0.999844        0.004969  0.999595      0.120133         1.483199
8   -0.001302     0.007931  0.001313  -0.007922  1.110919e-05  8.662015e-06   0.011602  0.011602  0.011602    0.999844        0.004969  0.999006      0.093197         5.044375
9    0.007205     0.008109 -0.007205  -0.008109  4.070171e-08  3.173579e-08   0.000418  0.000418  0.000418    0.999878        0.003128  0.999873      0.003178         0.181552
10   0.013996     0.017931 -0.013996  -0.017931  2.531065e-07  1.973513e-07   0.000876  0.000876  0.000876    0.999892        0.002931  0.999878      0.003128         0.380704
11   0.007391     0.010341 -0.007391  -0.010341  7.904418e-08  6.163205e-08   0.000489  0.000489  0.000489    0.999824        0.005257  0.999816      0.005386         0.212751
12   0.002927    -0.005298 -0.002906   0.005315  2.178076e-05  1.698282e-05   0.008758  0.008758  0.008758    0.997654        0.660293  0.998378      0.402294         3.807718
13   0.000384    -0.004386 -0.000370   0.004396  1.303855e-05  1.016637e-05   0.006378  0.006378  0.006378    0.996338        0.582479  0.998378      0.402294         2.773196
14   0.000715    -0.003124 -0.000706   0.003131  9.361332e-06  7.299185e-06   0.004643  0.004643  0.004643    0.996086        0.852281  0.997654      0.660293         2.018801
15   0.000236     0.005135 -0.000204  -0.005110  3.222078e-05  2.512307e-05   0.007428  0.007428  0.007428    0.999006        0.093197  0.993860      0.440867         3.229373
16   0.001568    -0.000962 -0.001565   0.000964  2.959580e-06  2.307633e-06   0.002661  0.002661  0.002661    0.997546        0.483546  0.996835      0.373973         1.157049
--------------------------------------------------

TRAFO:
    p_hv_mw  q_hv_mvar   p_lv_mw  q_lv_mvar    pl_mw  ql_mvar   i_hv_ka   i_lv_ka  vm_hv_pu  va_hv_degree  vm_lv_pu  va_lv_degree  loading_percent
0 -0.005099   0.011938  0.005109  -0.010938  0.00001    0.001  0.000500  0.017426  0.999953      0.001740  0.999953      0.001747         0.129817
1 -0.004086   0.017999  0.004096  -0.016999  0.00001    0.001  0.000711  0.025242  0.999844      0.004959  0.999844      0.004969         0.184597
2  0.015073   0.046684 -0.015063  -0.042684  0.00001    0.004  0.000405  0.001742  1.000000      0.000000  1.000000      0.000006         0.122642
3  0.020429   0.052045 -0.020419  -0.048045  0.00001    0.004  0.000461  0.002009  1.000000      0.000000  1.000000      0.000007         0.139777
--------------------------------------------------
